<?xml version="1.0" encoding="UTF-8"?>

<!-- generated on 08/25/23 17:15:24 by Eclipse SUMO netedit Version 1.6.0
<configuration xmlns:xsi="http://www.w3.org/2001/XMLSchema-instance" xsi:noNamespaceSchemaLocation="http://sumo.dlr.de/xsd/netconvertConfiguration.xsd">

    <input>
        <sumo-net-file value="C:\omnetpp-5.6.2\NottinghamLC\safety\examples\evlc\osm.net.xml"/>
    </input>

    <output>
        <output-file value="C:\omnetpp-5.6.2\NottinghamLC\safety\examples\evlc\osm.net.xml"/>
        <output.street-names value="true"/>
    </output>

    <processing>
        <geometry.min-radius.fix.railways value="false"/>
        <geometry.max-grade.fix value="false"/>
        <offset.disable-normalization value="true"/>
        <lefthand value="true"/>
    </processing>

    <junctions>
        <no-turnarounds value="true"/>
        <junctions.corner-detail value="5"/>
        <junctions.limit-turn-speed value="5.5"/>
        <rectangular-lane-cut value="false"/>
    </junctions>

    <pedestrian>
        <walkingareas value="false"/>
    </pedestrian>

    <netedit>
        <route-files value="C:\omnetpp-5.6.2\NottinghamLC\safety\examples\evlc\abc.rou.xml"/>
    </netedit>

    <report>
        <aggregate-warnings value="5"/>
    </report>

</configuration>
-->

<routes xmlns:xsi="http://www.w3.org/2001/XMLSchema-instance" xsi:noNamespaceSchemaLocation="http://sumo.dlr.de/xsd/routes_file.xsd">
    <route edges="20208830#9 -29411933#7 -29411933#6 -29411933#4 29411914#0 29411914#1 29411914#2 20208830#13" color="yellow" id="route_0"/>
</routes>
