[General]
cmdenv-express-mode = true
cmdenv-autoflush = true
cmdenv-status-frequency = 1s

ned-path = .

network = Simple


##########################################################
#            Simulation parameters                       #
##########################################################
debug-on-errors = true
print-undisposed = false

sim-time-limit = 100s

**.param-record-as-scalar = false
**.scalar-recording = true
**.vector-recording = true
**.debug = false
**.coreDebug = false

*.playgroundSizeX = 2500m	
*.playgroundSizeY = 2500m	
*.playgroundSizeZ = 50m		


##########################################################
# Annotation parameters                                  #
##########################################################
*.annotations.draw = true

##########################################################
# Obstacle parameters                                    #
##########################################################
#*.obstacles.debug = false
*.obstacles.obstacles = xmldoc("config.xml", "//AnalogueModel[@type='SimpleObstacleShadowing']/obstacles")

##########################################################
#            TraCIScenarioManager parameters             #
##########################################################
*.manager.updateInterval = 1s
*.manager.host = "localhost"
*.manager.port = 9999
*.manager.autoShutdown = true
*.manager.launchConfig = xmldoc("osm.launchd.xml")

##########################################################
#            11p specific parameters                     #
#                                                        #
#                    NIC-Settings                        #
##########################################################
*.connectionManager.sendDirect = true
*.connectionManager.maxInterfDist = 2600m
*.connectionManager.drawMaxIntfDist = false

*.**.nic.mac1609_4.useServiceChannel = false

*.**.nic.mac1609_4.txPower = 20mW
*.**.nic.mac1609_4.bitrate = 6Mbps
*.**.nic.phy80211p.sensitivity = -89dBm

*.**.nic.phy80211p.useThermalNoise = true
*.**.nic.phy80211p.thermalNoise = -110dBm

*.**.nic.phy80211p.decider = xmldoc("config.xml")
*.**.nic.phy80211p.analogueModels = xmldoc("config.xml")
*.**.nic.phy80211p.usePropagationDelay = true

*.**.nic.phy80211p.antenna = xmldoc("antenna.xml", "/root/Antenna[@id='monopole']")

##########################################################
#                    WaveAppLayer                        #
##########################################################
*.node[*].applType = "PSEmergency"
*.node[*].appl.headerLength = 80 bit
*.node[*].appl.sendBeacons = false
*.node[*].appl.dataOnSch = false
*.node[*].appl.beaconInterval = 1s

##########################################################
#                      Mobility                          #
##########################################################
*.node[*].veinsmobilityType.debug = true
*.node[*].veinsmobility.x = 0
*.node[*].veinsmobility.y = 0
*.node[*].veinsmobility.z = 1.895

##########################################################
#                         RSU                            #
##########################################################
*.rsu[*].applType = "TraCIDemoRSU11p"
*.rsu[0].mobility.x = 420
*.rsu[0].mobility.y = 540
*.rsu[0].mobility.z = 50

[Config AppOff]
*.node[*].appl.onDuty = false

[Config AppOn]
*.node[0].appl.onDuty = true
